
OS:Version,
  {cca64f1d-c9ad-4f00-b670-fb3728a636cf}, !- Handle
  3.2.0;                                  !- Version Identifier

OS:SimulationControl,
  {819ec8b1-4d5c-4a07-88a2-16daf7a1582f}, !- Handle
  Yes,                                    !- Do Zone Sizing Calculation
  Yes,                                    !- Do System Sizing Calculation
  No,                                     !- Do Plant Sizing Calculation
  Yes,                                    !- Run Simulation for Sizing Periods
  Yes,                                    !- Run Simulation for Weather File Run Periods
  0.04,                                   !- Loads Convergence Tolerance Value {W}
  0.4,                                    !- Temperature Convergence Tolerance Value {deltaC}
  FullExterior,                           !- Solar Distribution
  25,                                     !- Maximum Number of Warmup Days
  6,                                      !- Minimum Number of Warmup Days
  No,                                     !- Do HVAC Sizing Simulation for Sizing Periods
  1;                                      !- Maximum Number of HVAC Sizing Simulation Passes
  
OS:Timestep,
  {c4b779ff-645e-4e72-9919-ff57f6a518c8}, !- Handle
  4;                                      !- Number of Timesteps per Hour

OS:HeatBalanceAlgorithm,
  {b6539c72-9b3c-45f8-ab08-24c485c76b93}, !- Handle
  ConductionTransferFunction,             !- Algorithm
  200;                                    !- Surface Temperature Upper Limit {C}

OS:RunPeriod,
  {647a6f48-c248-464b-ab31-80dd794774a7}, !- Handle
  RUNPERIOD 1,                            !- Name
  1,                                      !- Begin Month
  1,                                      !- Begin Day of Month
  12,                                     !- End Month
  31,                                     !- End Day of Month
  Yes,                                    !- Use Weather File Holidays and Special Days
  Yes,                                    !- Use Weather File Daylight Saving Period
  No,                                     !- Apply Weekend Holiday Rule
  Yes,                                    !- Use Weather File Rain Indicators
  Yes,                                    !- Use Weather File Snow Indicators
  ;                                       !- Number of Times Runperiod to be Repeated

OS:YearDescription,
  {b4409265-5cf5-4df5-bee3-a64befce6e52}, !- Handle
  ,                                       !- Calendar Year
  Sunday;                                 !- Day of Week for Start Day

OS:Schedule:Day,
  {eb5817cc-29e4-47b6-9caa-1a830c14da30}, !- Handle
  aim0171,                                !- Name
  {8ea0a802-d267-4fab-beb8-9f59d5dca340}, !- Schedule Type Limits Name
  ,                                       !- Interpolate to Timestep
  5,                                      !- Hour 1
  0,                                      !- Minute 1
  0.1,                                    !- Value Until Time 1
  6,                                      !- Hour 2
  0,                                      !- Minute 2
  0.3,                                    !- Value Until Time 2
  10,                                     !- Hour 3
  0,                                      !- Minute 3
  0.45,                                   !- Value Until Time 3
  18,                                     !- Hour 4
  0,                                      !- Minute 4
  0.3,                                    !- Value Until Time 4
  19,                                     !- Hour 5
  0,                                      !- Minute 5
  0.6,                                    !- Value Until Time 5
  20,                                     !- Hour 6
  0,                                      !- Minute 6
  0.8,                                    !- Value Until Time 6
  21,                                     !- Hour 7
  0,                                      !- Minute 7
  0.9,                                    !- Value Until Time 7
  22,                                     !- Hour 8
  0,                                      !- Minute 8
  0.8,                                    !- Value Until Time 8
  23,                                     !- Hour 9
  0,                                      !- Minute 9
  0.6,                                    !- Value Until Time 9
  24,                                     !- Hour 10
  0,                                      !- Minute 10
  0.3;                                    !- Value Until Time 10

OS:ScheduleTypeLimits,
  {8ea0a802-d267-4fab-beb8-9f59d5dca340}, !- Handle
  Fraction,                               !- Name
  0,                                      !- Lower Limit Value
  1,                                      !- Upper Limit Value
  CONTINUOUS;                             !- Numeric Type

OS:Schedule:Day,
  {ae302aba-1267-4218-9043-1ef86c852770}, !- Handle
  aim0177,                                !- Name
  {8ea0a802-d267-4fab-beb8-9f59d5dca340}, !- Schedule Type Limits Name
  ,                                       !- Interpolate to Timestep
  6,                                      !- Hour 1
  0,                                      !- Minute 1
  0.9,                                    !- Value Until Time 1
  7,                                      !- Hour 2
  0,                                      !- Minute 2
  0.7,                                    !- Value Until Time 2
  9,                                      !- Hour 3
  0,                                      !- Minute 3
  0.4,                                    !- Value Until Time 3
  15,                                     !- Hour 4
  0,                                      !- Minute 4
  0.2,                                    !- Value Until Time 4
  16,                                     !- Hour 5
  0,                                      !- Minute 5
  0.3,                                    !- Value Until Time 5
  19,                                     !- Hour 6
  0,                                      !- Minute 6
  0.5,                                    !- Value Until Time 6
  21,                                     !- Hour 7
  0,                                      !- Minute 7
  0.7,                                    !- Value Until Time 7
  22,                                     !- Hour 8
  0,                                      !- Minute 8
  0.8,                                    !- Value Until Time 8
  24,                                     !- Hour 9
  0,                                      !- Minute 9
  0.9;                                    !- Value Until Time 9

OS:Schedule:Day,
  {496b8743-d294-44da-ba1c-fd48f931ee60}, !- Handle
  ds-374-Equip,                           !- Name
  {8ea0a802-d267-4fab-beb8-9f59d5dca340}, !- Schedule Type Limits Name
  ,                                       !- Interpolate to Timestep
  6,                                      !- Hour 1
  0,                                      !- Minute 1
  0.3,                                    !- Value Until Time 1
  10,                                     !- Hour 2
  0,                                      !- Minute 2
  0.45,                                   !- Value Until Time 2
  18,                                     !- Hour 3
  0,                                      !- Minute 3
  0.3,                                    !- Value Until Time 3
  19,                                     !- Hour 4
  0,                                      !- Minute 4
  0.6,                                    !- Value Until Time 4
  20,                                     !- Hour 5
  0,                                      !- Minute 5
  0.8,                                    !- Value Until Time 5
  21,                                     !- Hour 6
  0,                                      !- Minute 6
  0.9,                                    !- Value Until Time 6
  22,                                     !- Hour 7
  0,                                      !- Minute 7
  0.8,                                    !- Value Until Time 7
  23,                                     !- Hour 8
  0,                                      !- Minute 8
  0.6,                                    !- Value Until Time 8
  24,                                     !- Hour 9
  0,                                      !- Minute 9
  0.3;                                    !- Value Until Time 9

OS:Schedule:Day,
  {d11f3b28-e461-4900-8ab2-f9adb60df6cd}, !- Handle
  ds-375-Equip,                           !- Name
  {8ea0a802-d267-4fab-beb8-9f59d5dca340}, !- Schedule Type Limits Name
  ,                                       !- Interpolate to Timestep
  6,                                      !- Hour 1
  0,                                      !- Minute 1
  0.3,                                    !- Value Until Time 1
  10,                                     !- Hour 2
  0,                                      !- Minute 2
  0.45,                                   !- Value Until Time 2
  18,                                     !- Hour 3
  0,                                      !- Minute 3
  0.3,                                    !- Value Until Time 3
  19,                                     !- Hour 4
  0,                                      !- Minute 4
  0.6,                                    !- Value Until Time 4
  20,                                     !- Hour 5
  0,                                      !- Minute 5
  0.8,                                    !- Value Until Time 5
  21,                                     !- Hour 6
  0,                                      !- Minute 6
  0.9,                                    !- Value Until Time 6
  22,                                     !- Hour 7
  0,                                      !- Minute 7
  0.8,                                    !- Value Until Time 7
  23,                                     !- Hour 8
  0,                                      !- Minute 8
  0.6,                                    !- Value Until Time 8
  24,                                     !- Hour 9
  0,                                      !- Minute 9
  0.3;                                    !- Value Until Time 9

OS:Schedule:Day,
  {96479340-36dd-4616-95e0-f8b40d6471d3}, !- Handle
  ds-376-Equip,                           !- Name
  {8ea0a802-d267-4fab-beb8-9f59d5dca340}, !- Schedule Type Limits Name
  ,                                       !- Interpolate to Timestep
  6,                                      !- Hour 1
  0,                                      !- Minute 1
  0.3,                                    !- Value Until Time 1
  10,                                     !- Hour 2
  0,                                      !- Minute 2
  0.45,                                   !- Value Until Time 2
  18,                                     !- Hour 3
  0,                                      !- Minute 3
  0.3,                                    !- Value Until Time 3
  19,                                     !- Hour 4
  0,                                      !- Minute 4
  0.6,                                    !- Value Until Time 4
  20,                                     !- Hour 5
  0,                                      !- Minute 5
  0.8,                                    !- Value Until Time 5
  21,                                     !- Hour 6
  0,                                      !- Minute 6
  0.9,                                    !- Value Until Time 6
  22,                                     !- Hour 7
  0,                                      !- Minute 7
  0.8,                                    !- Value Until Time 7
  23,                                     !- Hour 8
  0,                                      !- Minute 8
  0.6,                                    !- Value Until Time 8
  24,                                     !- Hour 9
  0,                                      !- Minute 9
  0.3;                                    !- Value Until Time 9

OS:Schedule:Day,
  {671fc69e-eca6-42c9-b4d8-70b77f63d590}, !- Handle
  ds-311-Fan,                             !- Name
  {0e6a4c0e-c4f4-4bd4-a6cb-6006ebac27c7}, !- Schedule Type Limits Name
  ,                                       !- Interpolate to Timestep
  24,                                     !- Hour 1
  0,                                      !- Minute 1
  1;                                      !- Value Until Time 1

OS:ScheduleTypeLimits,
  {0e6a4c0e-c4f4-4bd4-a6cb-6006ebac27c7}, !- Handle
  OnOff,                                  !- Name
  0,                                      !- Lower Limit Value
  1,                                      !- Upper Limit Value
  DISCRETE,                               !- Numeric Type
  Availability;                           !- Unit Type

OS:Schedule:Day,
  {99eaadf1-d3c6-44d2-80bb-7f4f62add364}, !- Handle
  ds-311-FanINF,                          !- Name
  {8ea0a802-d267-4fab-beb8-9f59d5dca340}, !- Schedule Type Limits Name
  ,                                       !- Interpolate to Timestep
  24,                                     !- Hour 1
  0,                                      !- Minute 1
  0.25;                                   !- Value Until Time 1

OS:Schedule:Day,
  {124d78b6-04c5-4bac-b5a7-224d11647acf}, !- Handle
  ds-312-Fan,                             !- Name
  {0e6a4c0e-c4f4-4bd4-a6cb-6006ebac27c7}, !- Schedule Type Limits Name
  ,                                       !- Interpolate to Timestep
  24,                                     !- Hour 1
  0,                                      !- Minute 1
  1;                                      !- Value Until Time 1

OS:Schedule:Day,
  {478bd2d9-74ec-4b12-8ed1-8993bcb25ca7}, !- Handle
  ds-312-FanINF,                          !- Name
  {8ea0a802-d267-4fab-beb8-9f59d5dca340}, !- Schedule Type Limits Name
  ,                                       !- Interpolate to Timestep
  24,                                     !- Hour 1
  0,                                      !- Minute 1
  0.25;                                   !- Value Until Time 1

OS:Schedule:Day,
  {a960eb01-6fe8-4a66-8a6a-39015a56e13a}, !- Handle
  ds-313-Fan,                             !- Name
  {0e6a4c0e-c4f4-4bd4-a6cb-6006ebac27c7}, !- Schedule Type Limits Name
  ,                                       !- Interpolate to Timestep
  24,                                     !- Hour 1
  0,                                      !- Minute 1
  1;                                      !- Value Until Time 1

OS:Schedule:Day,
  {c6a5f1cf-47ac-47a4-9b72-672bc17b2304}, !- Handle
  ds-313-FanINF,                          !- Name
  {8ea0a802-d267-4fab-beb8-9f59d5dca340}, !- Schedule Type Limits Name
  ,                                       !- Interpolate to Timestep
  24,                                     !- Hour 1
  0,                                      !- Minute 1
  0.25;                                   !- Value Until Time 1

OS:Schedule:Day,
  {7909a5fe-31a3-4d9c-91b3-c2f33d0799a6}, !- Handle
  ds-311-Temp-On-20-Off-15.5,             !- Name
  {49c13d2d-6513-46d3-90f2-85cc5d4e6a67}, !- Schedule Type Limits Name
  ,                                       !- Interpolate to Timestep
  24,                                     !- Hour 1
  0,                                      !- Minute 1
  20;                                     !- Value Until Time 1

OS:ScheduleTypeLimits,
  {49c13d2d-6513-46d3-90f2-85cc5d4e6a67}, !- Handle
  Temp,                                   !- Name
  -60,                                    !- Lower Limit Value
  200,                                    !- Upper Limit Value
  CONTINUOUS,                             !- Numeric Type
  Temperature;                            !- Unit Type

OS:Schedule:Day,
  {874f7032-bb09-4d05-a220-09db26d5ca9a}, !- Handle
  ds-312-Temp-On-20-Off-15.5,             !- Name
  {49c13d2d-6513-46d3-90f2-85cc5d4e6a67}, !- Schedule Type Limits Name
  ,                                       !- Interpolate to Timestep
  24,                                     !- Hour 1
  0,                                      !- Minute 1
  20;                                     !- Value Until Time 1

OS:Schedule:Day,
  {121b284a-6685-48cb-ada6-5fe2e39c68db}, !- Handle
  ds-313-Temp-On-20-Off-15.5,             !- Name
  {49c13d2d-6513-46d3-90f2-85cc5d4e6a67}, !- Schedule Type Limits Name
  ,                                       !- Interpolate to Timestep
  24,                                     !- Hour 1
  0,                                      !- Minute 1
  20;                                     !- Value Until Time 1

OS:Schedule:Day,
  {b1a80572-6fc5-49f2-91d2-4a0016152cac}, !- Handle
  ds-311-Temp-On-25.5-Off-29.4,           !- Name
  {49c13d2d-6513-46d3-90f2-85cc5d4e6a67}, !- Schedule Type Limits Name
  ,                                       !- Interpolate to Timestep
  24,                                     !- Hour 1
  0,                                      !- Minute 1
  25.5;                                   !- Value Until Time 1

OS:Schedule:Day,
  {fe6973b0-8450-4d0d-ac23-784bbf9418dd}, !- Handle
  ds-312-Temp-On-25.5-Off-29.4,           !- Name
  {49c13d2d-6513-46d3-90f2-85cc5d4e6a67}, !- Schedule Type Limits Name
  ,                                       !- Interpolate to Timestep
  24,                                     !- Hour 1
  0,                                      !- Minute 1
  25.5;                                   !- Value Until Time 1

OS:Schedule:Day,
  {4e2072a1-1f5e-4e9b-8970-a90e0e8898f2}, !- Handle
  ds-313-Temp-On-25.5-Off-29.4,           !- Name
  {49c13d2d-6513-46d3-90f2-85cc5d4e6a67}, !- Schedule Type Limits Name
  ,                                       !- Interpolate to Timestep
  24,                                     !- Hour 1
  0,                                      !- Minute 1
  25.5;                                   !- Value Until Time 1

OS:Schedule:Day,
  {2216e601-ff62-4e00-9461-1ed2e38094ff}, !- Handle
  ds-314-Occ,                             !- Name
  {8ea0a802-d267-4fab-beb8-9f59d5dca340}, !- Schedule Type Limits Name
  ,                                       !- Interpolate to Timestep
  3,                                      !- Hour 1
  0,                                      !- Minute 1
  0,                                      !- Value Until Time 1
  6,                                      !- Hour 2
  0,                                      !- Minute 2
  0.05,                                   !- Value Until Time 2
  7,                                      !- Hour 3
  0,                                      !- Minute 3
  0.8,                                    !- Value Until Time 3
  8,                                      !- Hour 4
  0,                                      !- Minute 4
  0.7,                                    !- Value Until Time 4
  9,                                      !- Hour 5
  0,                                      !- Minute 5
  0.5,                                    !- Value Until Time 5
  10,                                     !- Hour 6
  0,                                      !- Minute 6
  0.4,                                    !- Value Until Time 6
  14,                                     !- Hour 7
  0,                                      !- Minute 7
  0.25,                                   !- Value Until Time 7
  15,                                     !- Hour 8
  0,                                      !- Minute 8
  0.5,                                    !- Value Until Time 8
  16,                                     !- Hour 9
  0,                                      !- Minute 9
  0.6,                                    !- Value Until Time 9
  18,                                     !- Hour 10
  0,                                      !- Minute 10
  0.7,                                    !- Value Until Time 10
  19,                                     !- Hour 11
  0,                                      !- Minute 11
  0.4,                                    !- Value Until Time 11
  20,                                     !- Hour 12
  0,                                      !- Minute 12
  0.25,                                   !- Value Until Time 12
  22,                                     !- Hour 13
  0,                                      !- Minute 13
  0.2,                                    !- Value Until Time 13
  24,                                     !- Hour 14
  0,                                      !- Minute 14
  0.05;                                   !- Value Until Time 14

OS:Schedule:Day,
  {7bf2063c-321f-41e9-9240-f9a7b2eea2a7}, !- Handle
  ds-315-Occ,                             !- Name
  {8ea0a802-d267-4fab-beb8-9f59d5dca340}, !- Schedule Type Limits Name
  ,                                       !- Interpolate to Timestep
  3,                                      !- Hour 1
  0,                                      !- Minute 1
  0,                                      !- Value Until Time 1
  6,                                      !- Hour 2
  0,                                      !- Minute 2
  0.05,                                   !- Value Until Time 2
  7,                                      !- Hour 3
  0,                                      !- Minute 3
  0.8,                                    !- Value Until Time 3
  8,                                      !- Hour 4
  0,                                      !- Minute 4
  0.7,                                    !- Value Until Time 4
  9,                                      !- Hour 5
  0,                                      !- Minute 5
  0.5,                                    !- Value Until Time 5
  10,                                     !- Hour 6
  0,                                      !- Minute 6
  0.4,                                    !- Value Until Time 6
  14,                                     !- Hour 7
  0,                                      !- Minute 7
  0.25,                                   !- Value Until Time 7
  15,                                     !- Hour 8
  0,                                      !- Minute 8
  0.5,                                    !- Value Until Time 8
  16,                                     !- Hour 9
  0,                                      !- Minute 9
  0.6,                                    !- Value Until Time 9
  18,                                     !- Hour 10
  0,                                      !- Minute 10
  0.7,                                    !- Value Until Time 10
  19,                                     !- Hour 11
  0,                                      !- Minute 11
  0.4,                                    !- Value Until Time 11
  20,                                     !- Hour 12
  0,                                      !- Minute 12
  0.25,                                   !- Value Until Time 12
  22,                                     !- Hour 13
  0,                                      !- Minute 13
  0.2,                                    !- Value Until Time 13
  24,                                     !- Hour 14
  0,                                      !- Minute 14
  0.05;                                   !- Value Until Time 14

OS:Schedule:Day,
  {81be083d-8b7c-44c2-ae67-c607d15bb3d9}, !- Handle
  ds-316-Occ,                             !- Name
  {8ea0a802-d267-4fab-beb8-9f59d5dca340}, !- Schedule Type Limits Name
  ,                                       !- Interpolate to Timestep
  3,                                      !- Hour 1
  0,                                      !- Minute 1
  0,                                      !- Value Until Time 1
  6,                                      !- Hour 2
  0,                                      !- Minute 2
  0.05,                                   !- Value Until Time 2
  7,                                      !- Hour 3
  0,                                      !- Minute 3
  0.8,                                    !- Value Until Time 3
  8,                                      !- Hour 4
  0,                                      !- Minute 4
  0.7,                                    !- Value Until Time 4
  9,                                      !- Hour 5
  0,                                      !- Minute 5
  0.5,                                    !- Value Until Time 5
  10,                                     !- Hour 6
  0,                                      !- Minute 6
  0.4,                                    !- Value Until Time 6
  14,                                     !- Hour 7
  0,                                      !- Minute 7
  0.25,                                   !- Value Until Time 7
  15,                                     !- Hour 8
  0,                                      !- Minute 8
  0.5,                                    !- Value Until Time 8
  16,                                     !- Hour 9
  0,                                      !- Minute 9
  0.6,                                    !- Value Until Time 9
  18,                                     !- Hour 10
  0,                                      !- Minute 10
  0.7,                                    !- Value Until Time 10
  19,                                     !- Hour 11
  0,                                      !- Minute 11
  0.4,                                    !- Value Until Time 11
  20,                                     !- Hour 12
  0,                                      !- Minute 12
  0.25,                                   !- Value Until Time 12
  22,                                     !- Hour 13
  0,                                      !- Minute 13
  0.2,                                    !- Value Until Time 13
  24,                                     !- Hour 14
  0,                                      !- Minute 14
  0.05;                                   !- Value Until Time 14

OS:Schedule:Week,
  {ae267a85-fbdf-4707-ba2c-5f519d486ceb}, !- Handle
  aim0172,                                !- Name
  ,                                       !- Schedule Rendering Name
  {eb5817cc-29e4-47b6-9caa-1a830c14da30}, !- Sunday Schedule:Day Name
  {eb5817cc-29e4-47b6-9caa-1a830c14da30}, !- Monday Schedule:Day Name
  {eb5817cc-29e4-47b6-9caa-1a830c14da30}, !- Tuesday Schedule:Day Name
  {eb5817cc-29e4-47b6-9caa-1a830c14da30}, !- Wednesday Schedule:Day Name
  {eb5817cc-29e4-47b6-9caa-1a830c14da30}, !- Thursday Schedule:Day Name
  {eb5817cc-29e4-47b6-9caa-1a830c14da30}, !- Friday Schedule:Day Name
  {eb5817cc-29e4-47b6-9caa-1a830c14da30}, !- Saturday Schedule:Day Name
  {eb5817cc-29e4-47b6-9caa-1a830c14da30}, !- Holiday Schedule:Day Name
  {eb5817cc-29e4-47b6-9caa-1a830c14da30}, !- SummerDesignDay Schedule:Day Name
  {eb5817cc-29e4-47b6-9caa-1a830c14da30}, !- WinterDesignDay Schedule:Day Name
  {eb5817cc-29e4-47b6-9caa-1a830c14da30}, !- CustomDay1 Schedule:Day Name
  {eb5817cc-29e4-47b6-9caa-1a830c14da30}; !- CustomDay2 Schedule:Day Name

OS:Schedule:Week,
  {7d140f29-6873-4d62-ad1e-4373c1e64602}, !- Handle
  aim0178,                                !- Name
  ,                                       !- Schedule Rendering Name
  {ae302aba-1267-4218-9043-1ef86c852770}, !- Sunday Schedule:Day Name
  {ae302aba-1267-4218-9043-1ef86c852770}, !- Monday Schedule:Day Name
  {ae302aba-1267-4218-9043-1ef86c852770}, !- Tuesday Schedule:Day Name
  {ae302aba-1267-4218-9043-1ef86c852770}, !- Wednesday Schedule:Day Name
  {ae302aba-1267-4218-9043-1ef86c852770}, !- Thursday Schedule:Day Name
  {ae302aba-1267-4218-9043-1ef86c852770}, !- Friday Schedule:Day Name
  {ae302aba-1267-4218-9043-1ef86c852770}, !- Saturday Schedule:Day Name
  {ae302aba-1267-4218-9043-1ef86c852770}, !- Holiday Schedule:Day Name
  {ae302aba-1267-4218-9043-1ef86c852770}, !- SummerDesignDay Schedule:Day Name
  {ae302aba-1267-4218-9043-1ef86c852770}, !- WinterDesignDay Schedule:Day Name
  {ae302aba-1267-4218-9043-1ef86c852770}, !- CustomDay1 Schedule:Day Name
  {ae302aba-1267-4218-9043-1ef86c852770}; !- CustomDay2 Schedule:Day Name

OS:Schedule:Week,
  {5409bffb-aba1-4340-9943-b1fc1a9c879f}, !- Handle
  ws-79-Equip,                            !- Name
  ,                                       !- Schedule Rendering Name
  {96479340-36dd-4616-95e0-f8b40d6471d3}, !- Sunday Schedule:Day Name
  {496b8743-d294-44da-ba1c-fd48f931ee60}, !- Monday Schedule:Day Name
  {496b8743-d294-44da-ba1c-fd48f931ee60}, !- Tuesday Schedule:Day Name
  {496b8743-d294-44da-ba1c-fd48f931ee60}, !- Wednesday Schedule:Day Name
  {496b8743-d294-44da-ba1c-fd48f931ee60}, !- Thursday Schedule:Day Name
  {496b8743-d294-44da-ba1c-fd48f931ee60}, !- Friday Schedule:Day Name
  {d11f3b28-e461-4900-8ab2-f9adb60df6cd}, !- Saturday Schedule:Day Name
  {96479340-36dd-4616-95e0-f8b40d6471d3}, !- Holiday Schedule:Day Name
  {496b8743-d294-44da-ba1c-fd48f931ee60}, !- SummerDesignDay Schedule:Day Name
  {96479340-36dd-4616-95e0-f8b40d6471d3}, !- WinterDesignDay Schedule:Day Name
  {96479340-36dd-4616-95e0-f8b40d6471d3}, !- CustomDay1 Schedule:Day Name
  {96479340-36dd-4616-95e0-f8b40d6471d3}; !- CustomDay2 Schedule:Day Name

OS:Schedule:Week,
  {5ca1c7a3-939b-4a77-9a81-e4979ce6053b}, !- Handle
  ws-4-Fan,                               !- Name
  ,                                       !- Schedule Rendering Name
  {a960eb01-6fe8-4a66-8a6a-39015a56e13a}, !- Sunday Schedule:Day Name
  {671fc69e-eca6-42c9-b4d8-70b77f63d590}, !- Monday Schedule:Day Name
  {671fc69e-eca6-42c9-b4d8-70b77f63d590}, !- Tuesday Schedule:Day Name
  {671fc69e-eca6-42c9-b4d8-70b77f63d590}, !- Wednesday Schedule:Day Name
  {671fc69e-eca6-42c9-b4d8-70b77f63d590}, !- Thursday Schedule:Day Name
  {671fc69e-eca6-42c9-b4d8-70b77f63d590}, !- Friday Schedule:Day Name
  {124d78b6-04c5-4bac-b5a7-224d11647acf}, !- Saturday Schedule:Day Name
  {a960eb01-6fe8-4a66-8a6a-39015a56e13a}, !- Holiday Schedule:Day Name
  {671fc69e-eca6-42c9-b4d8-70b77f63d590}, !- SummerDesignDay Schedule:Day Name
  {a960eb01-6fe8-4a66-8a6a-39015a56e13a}, !- WinterDesignDay Schedule:Day Name